<edges>
    <!-- West to J1 -->
    <edge id="W1_to_J1" from="W1" to="J1" numLanes="2" speed="13.89"/>
    <edge id="J1_to_W1" from="J1" to="W1" numLanes="2" speed="13.89"/>
    
    <!-- N/S for J1 -->
    <edge id="N1_to_J1" from="N1" to="J1" numLanes="2" speed="13.89"/>
    <edge id="J1_to_N1" from="J1" to="N1" numLanes="2" speed="13.89"/>
    <edge id="S1_to_J1" from="S1" to="J1" numLanes="2" speed="13.89"/>
    <edge id="J1_to_S1" from="J1" to="S1" numLanes="2" speed="13.89"/>

    <!-- J1 to J2 (Arterial connecting link) -->
    <edge id="J1_to_J2" from="J1" to="J2" numLanes="2" speed="13.89"/>
    <edge id="J2_to_J1" from="J2" to="J1" numLanes="2" speed="13.89"/>

    <!-- N/S for J2 -->
    <edge id="N2_to_J2" from="N2" to="J2" numLanes="2" speed="13.89"/>
    <edge id="J2_to_N2" from="J2" to="N2" numLanes="2" speed="13.89"/>
    <edge id="S2_to_J2" from="S2" to="J2" numLanes="2" speed="13.89"/>
    <edge id="J2_to_S2" from="J2" to="S2" numLanes="2" speed="13.89"/>

    <!-- J2 to J3 (Arterial connecting link) -->
    <edge id="J2_to_J3" from="J2" to="J3" numLanes="2" speed="13.89"/>
    <edge id="J3_to_J2" from="J3" to="J2" numLanes="2" speed="13.89"/>

    <!-- N/S for J3 -->
    <edge id="N3_to_J3" from="N3" to="J3" numLanes="2" speed="13.89"/>
    <edge id="J3_to_N3" from="J3" to="N3" numLanes="2" speed="13.89"/>
    <edge id="S3_to_J3" from="S3" to="J3" numLanes="2" speed="13.89"/>
    <edge id="J3_to_S3" from="J3" to="S3" numLanes="2" speed="13.89"/>

    <!-- J3 to East -->
    <edge id="J3_to_E1" from="J3" to="E1" numLanes="2" speed="13.89"/>
    <edge id="E1_to_J3" from="E1" to="J3" numLanes="2" speed="13.89"/>
</edges>
