<?xml version="1.0" encoding="UTF-8"?>

<!-- generated on 2026-04-11 16:22:26 by Eclipse SUMO netconvert Version 1.24.0
<netconvertConfiguration xmlns:xsi="http://www.w3.org/2001/XMLSchema-instance" xsi:noNamespaceSchemaLocation="http://sumo.dlr.de/xsd/netconvertConfiguration.xsd">

    <input>
        <node-files value="configs/sumo/corridor.nod.xml"/>
        <edge-files value="configs/sumo/corridor.edg.xml"/>
    </input>

    <output>
        <output-file value="configs/sumo/corridor.net.xml"/>
    </output>

</netconvertConfiguration>
-->

<net version="1.20" junctionCornerDetail="5" limitTurnSpeed="5.50" xmlns:xsi="http://www.w3.org/2001/XMLSchema-instance" xsi:noNamespaceSchemaLocation="http://sumo.dlr.de/xsd/net_file.xsd">

    <location netOffset="1000.00,250.00" convBoundary="0.00,0.00,2000.00,500.00" origBoundary="-1000.00,-250.00,1000.00,250.00" projParameter="!"/>

    <edge id=":E1_0" function="internal">
        <lane id=":E1_0_0" index="0" speed="3.65" length="4.67" shape="2000.00,248.40 2001.20,249.20 2001.60,250.00 2001.20,250.80 2000.00,251.60"/>
    </edge>
    <edge id=":J1_0" function="internal">
        <lane id=":J1_0_0" index="0" speed="6.51" length="9.03" shape="495.20,260.40 494.85,257.95 493.80,256.20 492.05,255.15 489.60,254.80"/>
    </edge>
    <edge id=":J1_1" function="internal">
        <lane id=":J1_1_0" index="0" speed="13.89" length="20.80" shape="495.20,260.40 495.20,239.60"/>
        <lane id=":J1_1_1" index="1" speed="13.89" length="20.80" shape="498.40,260.40 498.40,239.60"/>
    </edge>
    <edge id=":J1_3" function="internal">
        <lane id=":J1_3_0" index="0" speed="9.26" length="5.01" shape="498.40,260.40 499.11,255.44"/>
    </edge>
    <edge id=":J1_4" function="internal">
        <lane id=":J1_4_0" index="0" speed="3.65" length="1.44" shape="498.40,260.40 499.20,259.20"/>
    </edge>
    <edge id=":J1_20" function="internal">
        <lane id=":J1_20_0" index="0" speed="9.26" length="14.34" shape="499.11,255.44 499.15,255.15 501.40,251.40 505.15,249.15 510.40,248.40"/>
    </edge>
    <edge id=":J1_21" function="internal">
        <lane id=":J1_21_0" index="0" speed="3.65" length="3.23" shape="499.20,259.20 500.00,258.80 500.80,259.20 501.60,260.40"/>
    </edge>
    <edge id=":J1_5" function="internal">
        <lane id=":J1_5_0" index="0" speed="6.51" length="9.03" shape="510.40,254.80 507.95,255.15 506.20,256.20 505.15,257.95 504.80,260.40"/>
    </edge>
    <edge id=":J1_6" function="internal">
        <lane id=":J1_6_0" index="0" speed="13.89" length="20.80" shape="510.40,254.80 489.60,254.80"/>
        <lane id=":J1_6_1" index="1" speed="13.89" length="20.80" shape="510.40,251.60 489.60,251.60"/>
    </edge>
    <edge id=":J1_8" function="internal">
        <lane id=":J1_8_0" index="0" speed="9.26" length="5.01" shape="510.40,251.60 505.44,250.89"/>
    </edge>
    <edge id=":J1_9" function="internal">
        <lane id=":J1_9_0" index="0" speed="3.65" length="1.44" shape="510.40,251.60 509.20,250.80"/>
    </edge>
    <edge id=":J1_22" function="internal">
        <lane id=":J1_22_0" index="0" speed="9.26" length="14.34" shape="505.44,250.89 505.15,250.85 501.40,248.60 499.15,244.85 498.40,239.60"/>
    </edge>
    <edge id=":J1_23" function="internal">
        <lane id=":J1_23_0" index="0" speed="3.65" length="3.23" shape="509.20,250.80 508.80,250.00 509.20,249.20 510.40,248.40"/>
    </edge>
    <edge id=":J1_10" function="internal">
        <lane id=":J1_10_0" index="0" speed="6.51" length="9.03" shape="504.80,239.60 505.15,242.05 506.20,243.80 507.95,244.85 510.40,245.20"/>
    </edge>
    <edge id=":J1_11" function="internal">
        <lane id=":J1_11_0" index="0" speed="13.89" length="20.80" shape="504.80,239.60 504.80,260.40"/>
        <lane id=":J1_11_1" index="1" speed="13.89" length="20.80" shape="501.60,239.60 501.60,260.40"/>
    </edge>
    <edge id=":J1_13" function="internal">
        <lane id=":J1_13_0" index="0" speed="9.26" length="5.01" shape="501.60,239.60 500.89,244.56"/>
    </edge>
    <edge id=":J1_14" function="internal">
        <lane id=":J1_14_0" index="0" speed="3.65" length="1.44" shape="501.60,239.60 500.80,240.80"/>
    </edge>
    <edge id=":J1_24" function="internal">
        <lane id=":J1_24_0" index="0" speed="9.26" length="14.34" shape="500.89,244.56 500.85,244.85 498.60,248.60 494.85,250.85 489.60,251.60"/>
    </edge>
    <edge id=":J1_25" function="internal">
        <lane id=":J1_25_0" index="0" speed="3.65" length="3.23" shape="500.80,240.80 500.00,241.20 499.20,240.80 498.40,239.60"/>
    </edge>
    <edge id=":J1_15" function="internal">
        <lane id=":J1_15_0" index="0" speed="6.51" length="9.03" shape="489.60,245.20 492.05,244.85 493.80,243.80 494.85,242.05 495.20,239.60"/>
    </edge>
    <edge id=":J1_16" function="internal">
        <lane id=":J1_16_0" index="0" speed="13.89" length="20.80" shape="489.60,245.20 510.40,245.20"/>
        <lane id=":J1_16_1" index="1" speed="13.89" length="20.80" shape="489.60,248.40 510.40,248.40"/>
    </edge>
    <edge id=":J1_18" function="internal">
        <lane id=":J1_18_0" index="0" speed="9.26" length="5.01" shape="489.60,248.40 494.56,249.11"/>
    </edge>
    <edge id=":J1_19" function="internal">
        <lane id=":J1_19_0" index="0" speed="3.65" length="1.44" shape="489.60,248.40 490.80,249.20"/>
    </edge>
    <edge id=":J1_26" function="internal">
        <lane id=":J1_26_0" index="0" speed="9.26" length="14.34" shape="494.56,249.11 494.85,249.15 498.60,251.40 500.85,255.15 501.60,260.40"/>
    </edge>
    <edge id=":J1_27" function="internal">
        <lane id=":J1_27_0" index="0" speed="3.65" length="3.23" shape="490.80,249.20 491.20,250.00 490.80,250.80 489.60,251.60"/>
    </edge>
    <edge id=":J2_0" function="internal">
        <lane id=":J2_0_0" index="0" speed="6.51" length="9.03" shape="995.20,260.40 994.85,257.95 993.80,256.20 992.05,255.15 989.60,254.80"/>
    </edge>
    <edge id=":J2_1" function="internal">
        <lane id=":J2_1_0" index="0" speed="13.89" length="20.80" shape="995.20,260.40 995.20,239.60"/>
        <lane id=":J2_1_1" index="1" speed="13.89" length="20.80" shape="998.40,260.40 998.40,239.60"/>
    </edge>
    <edge id=":J2_3" function="internal">
        <lane id=":J2_3_0" index="0" speed="9.26" length="5.01" shape="998.40,260.40 999.11,255.44"/>
    </edge>
    <edge id=":J2_4" function="internal">
        <lane id=":J2_4_0" index="0" speed="3.65" length="1.44" shape="998.40,260.40 999.20,259.20"/>
    </edge>
    <edge id=":J2_20" function="internal">
        <lane id=":J2_20_0" index="0" speed="9.26" length="14.34" shape="999.11,255.44 999.15,255.15 1001.40,251.40 1005.15,249.15 1010.40,248.40"/>
    </edge>
    <edge id=":J2_21" function="internal">
        <lane id=":J2_21_0" index="0" speed="3.65" length="3.23" shape="999.20,259.20 1000.00,258.80 1000.80,259.20 1001.60,260.40"/>
    </edge>
    <edge id=":J2_5" function="internal">
        <lane id=":J2_5_0" index="0" speed="6.51" length="9.03" shape="1010.40,254.80 1007.95,255.15 1006.20,256.20 1005.15,257.95 1004.80,260.40"/>
    </edge>
    <edge id=":J2_6" function="internal">
        <lane id=":J2_6_0" index="0" speed="13.89" length="20.80" shape="1010.40,254.80 989.60,254.80"/>
        <lane id=":J2_6_1" index="1" speed="13.89" length="20.80" shape="1010.40,251.60 989.60,251.60"/>
    </edge>
    <edge id=":J2_8" function="internal">
        <lane id=":J2_8_0" index="0" speed="9.26" length="5.01" shape="1010.40,251.60 1005.44,250.89"/>
    </edge>
    <edge id=":J2_9" function="internal">
        <lane id=":J2_9_0" index="0" speed="3.65" length="1.44" shape="1010.40,251.60 1009.20,250.80"/>
    </edge>
    <edge id=":J2_22" function="internal">
        <lane id=":J2_22_0" index="0" speed="9.26" length="14.34" shape="1005.44,250.89 1005.15,250.85 1001.40,248.60 999.15,244.85 998.40,239.60"/>
    </edge>
    <edge id=":J2_23" function="internal">
        <lane id=":J2_23_0" index="0" speed="3.65" length="3.23" shape="1009.20,250.80 1008.80,250.00 1009.20,249.20 1010.40,248.40"/>
    </edge>
    <edge id=":J2_10" function="internal">
        <lane id=":J2_10_0" index="0" speed="6.51" length="9.03" shape="1004.80,239.60 1005.15,242.05 1006.20,243.80 1007.95,244.85 1010.40,245.20"/>
    </edge>
    <edge id=":J2_11" function="internal">
        <lane id=":J2_11_0" index="0" speed="13.89" length="20.80" shape="1004.80,239.60 1004.80,260.40"/>
        <lane id=":J2_11_1" index="1" speed="13.89" length="20.80" shape="1001.60,239.60 1001.60,260.40"/>
    </edge>
    <edge id=":J2_13" function="internal">
        <lane id=":J2_13_0" index="0" speed="9.26" length="5.01" shape="1001.60,239.60 1000.89,244.56"/>
    </edge>
    <edge id=":J2_14" function="internal">
        <lane id=":J2_14_0" index="0" speed="3.65" length="1.44" shape="1001.60,239.60 1000.80,240.80"/>
    </edge>
    <edge id=":J2_24" function="internal">
        <lane id=":J2_24_0" index="0" speed="9.26" length="14.34" shape="1000.89,244.56 1000.85,244.85 998.60,248.60 994.85,250.85 989.60,251.60"/>
    </edge>
    <edge id=":J2_25" function="internal">
        <lane id=":J2_25_0" index="0" speed="3.65" length="3.23" shape="1000.80,240.80 1000.00,241.20 999.20,240.80 998.40,239.60"/>
    </edge>
    <edge id=":J2_15" function="internal">
        <lane id=":J2_15_0" index="0" speed="6.51" length="9.03" shape="989.60,245.20 992.05,244.85 993.80,243.80 994.85,242.05 995.20,239.60"/>
    </edge>
    <edge id=":J2_16" function="internal">
        <lane id=":J2_16_0" index="0" speed="13.89" length="20.80" shape="989.60,245.20 1010.40,245.20"/>
        <lane id=":J2_16_1" index="1" speed="13.89" length="20.80" shape="989.60,248.40 1010.40,248.40"/>
    </edge>
    <edge id=":J2_18" function="internal">
        <lane id=":J2_18_0" index="0" speed="9.26" length="5.01" shape="989.60,248.40 994.56,249.11"/>
    </edge>
    <edge id=":J2_19" function="internal">
        <lane id=":J2_19_0" index="0" speed="3.65" length="1.44" shape="989.60,248.40 990.80,249.20"/>
    </edge>
    <edge id=":J2_26" function="internal">
        <lane id=":J2_26_0" index="0" speed="9.26" length="14.34" shape="994.56,249.11 994.85,249.15 998.60,251.40 1000.85,255.15 1001.60,260.40"/>
    </edge>
    <edge id=":J2_27" function="internal">
        <lane id=":J2_27_0" index="0" speed="3.65" length="3.23" shape="990.80,249.20 991.20,250.00 990.80,250.80 989.60,251.60"/>
    </edge>
    <edge id=":J3_0" function="internal">
        <lane id=":J3_0_0" index="0" speed="6.51" length="9.03" shape="1495.20,260.40 1494.85,257.95 1493.80,256.20 1492.05,255.15 1489.60,254.80"/>
    </edge>
    <edge id=":J3_1" function="internal">
        <lane id=":J3_1_0" index="0" speed="13.89" length="20.80" shape="1495.20,260.40 1495.20,239.60"/>
        <lane id=":J3_1_1" index="1" speed="13.89" length="20.80" shape="1498.40,260.40 1498.40,239.60"/>
    </edge>
    <edge id=":J3_3" function="internal">
        <lane id=":J3_3_0" index="0" speed="9.26" length="5.01" shape="1498.40,260.40 1499.11,255.44"/>
    </edge>
    <edge id=":J3_4" function="internal">
        <lane id=":J3_4_0" index="0" speed="3.65" length="1.44" shape="1498.40,260.40 1499.20,259.20"/>
    </edge>
    <edge id=":J3_20" function="internal">
        <lane id=":J3_20_0" index="0" speed="9.26" length="14.34" shape="1499.11,255.44 1499.15,255.15 1501.40,251.40 1505.15,249.15 1510.40,248.40"/>
    </edge>
    <edge id=":J3_21" function="internal">
        <lane id=":J3_21_0" index="0" speed="3.65" length="3.23" shape="1499.20,259.20 1500.00,258.80 1500.80,259.20 1501.60,260.40"/>
    </edge>
    <edge id=":J3_5" function="internal">
        <lane id=":J3_5_0" index="0" speed="6.51" length="9.03" shape="1510.40,254.80 1507.95,255.15 1506.20,256.20 1505.15,257.95 1504.80,260.40"/>
    </edge>
    <edge id=":J3_6" function="internal">
        <lane id=":J3_6_0" index="0" speed="13.89" length="20.80" shape="1510.40,254.80 1489.60,254.80"/>
        <lane id=":J3_6_1" index="1" speed="13.89" length="20.80" shape="1510.40,251.60 1489.60,251.60"/>
    </edge>
    <edge id=":J3_8" function="internal">
        <lane id=":J3_8_0" index="0" speed="9.26" length="5.01" shape="1510.40,251.60 1505.44,250.89"/>
    </edge>
    <edge id=":J3_9" function="internal">
        <lane id=":J3_9_0" index="0" speed="3.65" length="1.44" shape="1510.40,251.60 1509.20,250.80"/>
    </edge>
    <edge id=":J3_22" function="internal">
        <lane id=":J3_22_0" index="0" speed="9.26" length="14.34" shape="1505.44,250.89 1505.15,250.85 1501.40,248.60 1499.15,244.85 1498.40,239.60"/>
    </edge>
    <edge id=":J3_23" function="internal">
        <lane id=":J3_23_0" index="0" speed="3.65" length="3.23" shape="1509.20,250.80 1508.80,250.00 1509.20,249.20 1510.40,248.40"/>
    </edge>
    <edge id=":J3_10" function="internal">
        <lane id=":J3_10_0" index="0" speed="6.51" length="9.03" shape="1504.80,239.60 1505.15,242.05 1506.20,243.80 1507.95,244.85 1510.40,245.20"/>
    </edge>
    <edge id=":J3_11" function="internal">
        <lane id=":J3_11_0" index="0" speed="13.89" length="20.80" shape="1504.80,239.60 1504.80,260.40"/>
        <lane id=":J3_11_1" index="1" speed="13.89" length="20.80" shape="1501.60,239.60 1501.60,260.40"/>
    </edge>
    <edge id=":J3_13" function="internal">
        <lane id=":J3_13_0" index="0" speed="9.26" length="5.01" shape="1501.60,239.60 1500.89,244.56"/>
    </edge>
    <edge id=":J3_14" function="internal">
        <lane id=":J3_14_0" index="0" speed="3.65" length="1.44" shape="1501.60,239.60 1500.80,240.80"/>
    </edge>
    <edge id=":J3_24" function="internal">
        <lane id=":J3_24_0" index="0" speed="9.26" length="14.34" shape="1500.89,244.56 1500.85,244.85 1498.60,248.60 1494.85,250.85 1489.60,251.60"/>
    </edge>
    <edge id=":J3_25" function="internal">
        <lane id=":J3_25_0" index="0" speed="3.65" length="3.23" shape="1500.80,240.80 1500.00,241.20 1499.20,240.80 1498.40,239.60"/>
    </edge>
    <edge id=":J3_15" function="internal">
        <lane id=":J3_15_0" index="0" speed="6.51" length="9.03" shape="1489.60,245.20 1492.05,244.85 1493.80,243.80 1494.85,242.05 1495.20,239.60"/>
    </edge>
    <edge id=":J3_16" function="internal">
        <lane id=":J3_16_0" index="0" speed="13.89" length="20.80" shape="1489.60,245.20 1510.40,245.20"/>
        <lane id=":J3_16_1" index="1" speed="13.89" length="20.80" shape="1489.60,248.40 1510.40,248.40"/>
    </edge>
    <edge id=":J3_18" function="internal">
        <lane id=":J3_18_0" index="0" speed="9.26" length="5.01" shape="1489.60,248.40 1494.56,249.11"/>
    </edge>
    <edge id=":J3_19" function="internal">
        <lane id=":J3_19_0" index="0" speed="3.65" length="1.44" shape="1489.60,248.40 1490.80,249.20"/>
    </edge>
    <edge id=":J3_26" function="internal">
        <lane id=":J3_26_0" index="0" speed="9.26" length="14.34" shape="1494.56,249.11 1494.85,249.15 1498.60,251.40 1500.85,255.15 1501.60,260.40"/>
    </edge>
    <edge id=":J3_27" function="internal">
        <lane id=":J3_27_0" index="0" speed="3.65" length="3.23" shape="1490.80,249.20 1491.20,250.00 1490.80,250.80 1489.60,251.60"/>
    </edge>
    <edge id=":N1_0" function="internal">
        <lane id=":N1_0_0" index="0" speed="3.65" length="4.67" shape="501.60,500.00 500.80,501.20 500.00,501.60 499.20,501.20 498.40,500.00"/>
    </edge>
    <edge id=":N2_0" function="internal">
        <lane id=":N2_0_0" index="0" speed="3.65" length="4.67" shape="1001.60,500.00 1000.80,501.20 1000.00,501.60 999.20,501.20 998.40,500.00"/>
    </edge>
    <edge id=":N3_0" function="internal">
        <lane id=":N3_0_0" index="0" speed="3.65" length="4.67" shape="1501.60,500.00 1500.80,501.20 1500.00,501.60 1499.20,501.20 1498.40,500.00"/>
    </edge>
    <edge id=":S1_0" function="internal">
        <lane id=":S1_0_0" index="0" speed="3.65" length="4.67" shape="498.40,0.00 499.20,-1.20 500.00,-1.60 500.80,-1.20 501.60,0.00"/>
    </edge>
    <edge id=":S2_0" function="internal">
        <lane id=":S2_0_0" index="0" speed="3.65" length="4.67" shape="998.40,0.00 999.20,-1.20 1000.00,-1.60 1000.80,-1.20 1001.60,0.00"/>
    </edge>
    <edge id=":S3_0" function="internal">
        <lane id=":S3_0_0" index="0" speed="3.65" length="4.67" shape="1498.40,0.00 1499.20,-1.20 1500.00,-1.60 1500.80,-1.20 1501.60,0.00"/>
    </edge>
    <edge id=":W1_0" function="internal">
        <lane id=":W1_0_0" index="0" speed="3.65" length="4.67" shape="0.00,251.60 -1.20,250.80 -1.60,250.00 -1.20,249.20 0.00,248.40"/>
    </edge>

    <edge id="E1_to_J3" from="E1" to="J3" priority="-1">
        <lane id="E1_to_J3_0" index="0" speed="13.89" length="489.60" shape="2000.00,254.80 1510.40,254.80"/>
        <lane id="E1_to_J3_1" index="1" speed="13.89" length="489.60" shape="2000.00,251.60 1510.40,251.60"/>
    </edge>
    <edge id="J1_to_J2" from="J1" to="J2" priority="-1">
        <lane id="J1_to_J2_0" index="0" speed="13.89" length="479.20" shape="510.40,245.20 989.60,245.20"/>
        <lane id="J1_to_J2_1" index="1" speed="13.89" length="479.20" shape="510.40,248.40 989.60,248.40"/>
    </edge>
    <edge id="J1_to_N1" from="J1" to="N1" priority="-1">
        <lane id="J1_to_N1_0" index="0" speed="13.89" length="239.60" shape="504.80,260.40 504.80,500.00"/>
        <lane id="J1_to_N1_1" index="1" speed="13.89" length="239.60" shape="501.60,260.40 501.60,500.00"/>
    </edge>
    <edge id="J1_to_S1" from="J1" to="S1" priority="-1">
        <lane id="J1_to_S1_0" index="0" speed="13.89" length="239.60" shape="495.20,239.60 495.20,0.00"/>
        <lane id="J1_to_S1_1" index="1" speed="13.89" length="239.60" shape="498.40,239.60 498.40,0.00"/>
    </edge>
    <edge id="J1_to_W1" from="J1" to="W1" priority="-1">
        <lane id="J1_to_W1_0" index="0" speed="13.89" length="489.60" shape="489.60,254.80 0.00,254.80"/>
        <lane id="J1_to_W1_1" index="1" speed="13.89" length="489.60" shape="489.60,251.60 0.00,251.60"/>
    </edge>
    <edge id="J2_to_J1" from="J2" to="J1" priority="-1">
        <lane id="J2_to_J1_0" index="0" speed="13.89" length="479.20" shape="989.60,254.80 510.40,254.80"/>
        <lane id="J2_to_J1_1" index="1" speed="13.89" length="479.20" shape="989.60,251.60 510.40,251.60"/>
    </edge>
    <edge id="J2_to_J3" from="J2" to="J3" priority="-1">
        <lane id="J2_to_J3_0" index="0" speed="13.89" length="479.20" shape="1010.40,245.20 1489.60,245.20"/>
        <lane id="J2_to_J3_1" index="1" speed="13.89" length="479.20" shape="1010.40,248.40 1489.60,248.40"/>
    </edge>
    <edge id="J2_to_N2" from="J2" to="N2" priority="-1">
        <lane id="J2_to_N2_0" index="0" speed="13.89" length="239.60" shape="1004.80,260.40 1004.80,500.00"/>
        <lane id="J2_to_N2_1" index="1" speed="13.89" length="239.60" shape="1001.60,260.40 1001.60,500.00"/>
    </edge>
    <edge id="J2_to_S2" from="J2" to="S2" priority="-1">
        <lane id="J2_to_S2_0" index="0" speed="13.89" length="239.60" shape="995.20,239.60 995.20,0.00"/>
        <lane id="J2_to_S2_1" index="1" speed="13.89" length="239.60" shape="998.40,239.60 998.40,0.00"/>
    </edge>
    <edge id="J3_to_E1" from="J3" to="E1" priority="-1">
        <lane id="J3_to_E1_0" index="0" speed="13.89" length="489.60" shape="1510.40,245.20 2000.00,245.20"/>
        <lane id="J3_to_E1_1" index="1" speed="13.89" length="489.60" shape="1510.40,248.40 2000.00,248.40"/>
    </edge>
    <edge id="J3_to_J2" from="J3" to="J2" priority="-1">
        <lane id="J3_to_J2_0" index="0" speed="13.89" length="479.20" shape="1489.60,254.80 1010.40,254.80"/>
        <lane id="J3_to_J2_1" index="1" speed="13.89" length="479.20" shape="1489.60,251.60 1010.40,251.60"/>
    </edge>
    <edge id="J3_to_N3" from="J3" to="N3" priority="-1">
        <lane id="J3_to_N3_0" index="0" speed="13.89" length="239.60" shape="1504.80,260.40 1504.80,500.00"/>
        <lane id="J3_to_N3_1" index="1" speed="13.89" length="239.60" shape="1501.60,260.40 1501.60,500.00"/>
    </edge>
    <edge id="J3_to_S3" from="J3" to="S3" priority="-1">
        <lane id="J3_to_S3_0" index="0" speed="13.89" length="239.60" shape="1495.20,239.60 1495.20,0.00"/>
        <lane id="J3_to_S3_1" index="1" speed="13.89" length="239.60" shape="1498.40,239.60 1498.40,0.00"/>
    </edge>
    <edge id="N1_to_J1" from="N1" to="J1" priority="-1">
        <lane id="N1_to_J1_0" index="0" speed="13.89" length="239.60" shape="495.20,500.00 495.20,260.40"/>
        <lane id="N1_to_J1_1" index="1" speed="13.89" length="239.60" shape="498.40,500.00 498.40,260.40"/>
    </edge>
    <edge id="N2_to_J2" from="N2" to="J2" priority="-1">
        <lane id="N2_to_J2_0" index="0" speed="13.89" length="239.60" shape="995.20,500.00 995.20,260.40"/>
        <lane id="N2_to_J2_1" index="1" speed="13.89" length="239.60" shape="998.40,500.00 998.40,260.40"/>
    </edge>
    <edge id="N3_to_J3" from="N3" to="J3" priority="-1">
        <lane id="N3_to_J3_0" index="0" speed="13.89" length="239.60" shape="1495.20,500.00 1495.20,260.40"/>
        <lane id="N3_to_J3_1" index="1" speed="13.89" length="239.60" shape="1498.40,500.00 1498.40,260.40"/>
    </edge>
    <edge id="S1_to_J1" from="S1" to="J1" priority="-1">
        <lane id="S1_to_J1_0" index="0" speed="13.89" length="239.60" shape="504.80,0.00 504.80,239.60"/>
        <lane id="S1_to_J1_1" index="1" speed="13.89" length="239.60" shape="501.60,0.00 501.60,239.60"/>
    </edge>
    <edge id="S2_to_J2" from="S2" to="J2" priority="-1">
        <lane id="S2_to_J2_0" index="0" speed="13.89" length="239.60" shape="1004.80,0.00 1004.80,239.60"/>
        <lane id="S2_to_J2_1" index="1" speed="13.89" length="239.60" shape="1001.60,0.00 1001.60,239.60"/>
    </edge>
    <edge id="S3_to_J3" from="S3" to="J3" priority="-1">
        <lane id="S3_to_J3_0" index="0" speed="13.89" length="239.60" shape="1504.80,0.00 1504.80,239.60"/>
        <lane id="S3_to_J3_1" index="1" speed="13.89" length="239.60" shape="1501.60,0.00 1501.60,239.60"/>
    </edge>
    <edge id="W1_to_J1" from="W1" to="J1" priority="-1">
        <lane id="W1_to_J1_0" index="0" speed="13.89" length="489.60" shape="0.00,245.20 489.60,245.20"/>
        <lane id="W1_to_J1_1" index="1" speed="13.89" length="489.60" shape="0.00,248.40 489.60,248.40"/>
    </edge>

    <tlLogic id="J1" type="static" programID="0" offset="0">
        <phase duration="42" state="GGGggrrrrrGGGggrrrrr"/>
        <phase duration="3"  state="yyyyyrrrrryyyyyrrrrr"/>
        <phase duration="42" state="rrrrrGGGggrrrrrGGGgg"/>
        <phase duration="3"  state="rrrrryyyyyrrrrryyyyy"/>
    </tlLogic>
    <tlLogic id="J2" type="static" programID="0" offset="0">
        <phase duration="42" state="GGGggrrrrrGGGggrrrrr"/>
        <phase duration="3"  state="yyyyyrrrrryyyyyrrrrr"/>
        <phase duration="42" state="rrrrrGGGggrrrrrGGGgg"/>
        <phase duration="3"  state="rrrrryyyyyrrrrryyyyy"/>
    </tlLogic>
    <tlLogic id="J3" type="static" programID="0" offset="0">
        <phase duration="42" state="GGGggrrrrrGGGggrrrrr"/>
        <phase duration="3"  state="yyyyyrrrrryyyyyrrrrr"/>
        <phase duration="42" state="rrrrrGGGggrrrrrGGGgg"/>
        <phase duration="3"  state="rrrrryyyyyrrrrryyyyy"/>
    </tlLogic>

    <junction id="E1" type="priority" x="2000.00" y="250.00" incLanes="J3_to_E1_0 J3_to_E1_1" intLanes=":E1_0_0" shape="2000.00,250.00 2000.00,243.60 2000.00,250.00">
        <request index="0" response="0" foes="0" cont="0"/>
    </junction>
    <junction id="J1" type="traffic_light" x="500.00" y="250.00" incLanes="N1_to_J1_0 N1_to_J1_1 J2_to_J1_0 J2_to_J1_1 S1_to_J1_0 S1_to_J1_1 W1_to_J1_0 W1_to_J1_1" intLanes=":J1_0_0 :J1_1_0 :J1_1_1 :J1_20_0 :J1_21_0 :J1_5_0 :J1_6_0 :J1_6_1 :J1_22_0 :J1_23_0 :J1_10_0 :J1_11_0 :J1_11_1 :J1_24_0 :J1_25_0 :J1_15_0 :J1_16_0 :J1_16_1 :J1_26_0 :J1_27_0" shape="493.60,260.40 506.40,260.40 506.84,258.18 507.40,257.40 508.18,256.84 509.18,256.51 510.40,256.40 510.40,243.60 508.18,243.16 507.40,242.60 506.84,241.82 506.51,240.82 506.40,239.60 493.60,239.60 493.16,241.82 492.60,242.60 491.82,243.16 490.82,243.49 489.60,243.60 489.60,256.40 491.82,256.84 492.60,257.40 493.16,258.18 493.49,259.18">
        <request index="0"  response="00000000000000000000" foes="00000000000011000000" cont="0"/>
        <request index="1"  response="01000000000100000000" foes="01111110000111000000" cont="0"/>
        <request index="2"  response="01000000000100000000" foes="01111110000111000000" cont="0"/>
        <request index="3"  response="01000001100100000000" foes="01110001101111000000" cont="1"/>
        <request index="4"  response="01000001100000000000" foes="01000001100000000000" cont="1"/>
        <request index="5"  response="00000001100000000000" foes="00000001100000000000" cont="0"/>
        <request index="6"  response="00000011100000001111" foes="11000011100000001111" cont="0"/>
        <request index="7"  response="00000011100000001111" foes="11000011100000001111" cont="0"/>
        <request index="8"  response="00110011100000001110" foes="00110111100000001110" cont="1"/>
        <request index="9"  response="00110000000000001000" foes="00110000000000001000" cont="1"/>
        <request index="10" response="00000000000000000000" foes="00110000000000000000" cont="0"/>
        <request index="11" response="01000000000100000000" foes="01110000000111111000" cont="0"/>
        <request index="12" response="01000000000100000000" foes="01110000000111111000" cont="0"/>
        <request index="13" response="01000000000100000110" foes="11110000000111000110" cont="1"/>
        <request index="14" response="00000000000100000110" foes="00000000000100000110" cont="1"/>
        <request index="15" response="00000000000000000110" foes="00000000000000000110" cont="0"/>
        <request index="16" response="00000011110000001110" foes="00000011111100001110" cont="0"/>
        <request index="17" response="00000011110000001110" foes="00000011111100001110" cont="0"/>
        <request index="18" response="00000011100011001110" foes="00000011100011011110" cont="1"/>
        <request index="19" response="00000010000011000000" foes="00000010000011000000" cont="1"/>
    </junction>
    <junction id="J2" type="traffic_light" x="1000.00" y="250.00" incLanes="N2_to_J2_0 N2_to_J2_1 J3_to_J2_0 J3_to_J2_1 S2_to_J2_0 S2_to_J2_1 J1_to_J2_0 J1_to_J2_1" intLanes=":J2_0_0 :J2_1_0 :J2_1_1 :J2_20_0 :J2_21_0 :J2_5_0 :J2_6_0 :J2_6_1 :J2_22_0 :J2_23_0 :J2_10_0 :J2_11_0 :J2_11_1 :J2_24_0 :J2_25_0 :J2_15_0 :J2_16_0 :J2_16_1 :J2_26_0 :J2_27_0" shape="993.60,260.40 1006.40,260.40 1006.84,258.18 1007.40,257.40 1008.18,256.84 1009.18,256.51 1010.40,256.40 1010.40,243.60 1008.18,243.16 1007.40,242.60 1006.84,241.82 1006.51,240.82 1006.40,239.60 993.60,239.60 993.16,241.82 992.60,242.60 991.82,243.16 990.82,243.49 989.60,243.60 989.60,256.40 991.82,256.84 992.60,257.40 993.16,258.18 993.49,259.18">
        <request index="0"  response="00000000000000000000" foes="00000000000011000000" cont="0"/>
        <request index="1"  response="01000000000100000000" foes="01111110000111000000" cont="0"/>
        <request index="2"  response="01000000000100000000" foes="01111110000111000000" cont="0"/>
        <request index="3"  response="01000001100100000000" foes="01110001101111000000" cont="1"/>
        <request index="4"  response="01000001100000000000" foes="01000001100000000000" cont="1"/>
        <request index="5"  response="00000001100000000000" foes="00000001100000000000" cont="0"/>
        <request index="6"  response="00000011100000001111" foes="11000011100000001111" cont="0"/>
        <request index="7"  response="00000011100000001111" foes="11000011100000001111" cont="0"/>
        <request index="8"  response="00110011100000001110" foes="00110111100000001110" cont="1"/>
        <request index="9"  response="00110000000000001000" foes="00110000000000001000" cont="1"/>
        <request index="10" response="00000000000000000000" foes="00110000000000000000" cont="0"/>
        <request index="11" response="01000000000100000000" foes="01110000000111111000" cont="0"/>
        <request index="12" response="01000000000100000000" foes="01110000000111111000" cont="0"/>
        <request index="13" response="01000000000100000110" foes="11110000000111000110" cont="1"/>
        <request index="14" response="00000000000100000110" foes="00000000000100000110" cont="1"/>
        <request index="15" response="00000000000000000110" foes="00000000000000000110" cont="0"/>
        <request index="16" response="00000011110000001110" foes="00000011111100001110" cont="0"/>
        <request index="17" response="00000011110000001110" foes="00000011111100001110" cont="0"/>
        <request index="18" response="00000011100011001110" foes="00000011100011011110" cont="1"/>
        <request index="19" response="00000010000011000000" foes="00000010000011000000" cont="1"/>
    </junction>
    <junction id="J3" type="traffic_light" x="1500.00" y="250.00" incLanes="N3_to_J3_0 N3_to_J3_1 E1_to_J3_0 E1_to_J3_1 S3_to_J3_0 S3_to_J3_1 J2_to_J3_0 J2_to_J3_1" intLanes=":J3_0_0 :J3_1_0 :J3_1_1 :J3_20_0 :J3_21_0 :J3_5_0 :J3_6_0 :J3_6_1 :J3_22_0 :J3_23_0 :J3_10_0 :J3_11_0 :J3_11_1 :J3_24_0 :J3_25_0 :J3_15_0 :J3_16_0 :J3_16_1 :J3_26_0 :J3_27_0" shape="1493.60,260.40 1506.40,260.40 1506.84,258.18 1507.40,257.40 1508.18,256.84 1509.18,256.51 1510.40,256.40 1510.40,243.60 1508.18,243.16 1507.40,242.60 1506.84,241.82 1506.51,240.82 1506.40,239.60 1493.60,239.60 1493.16,241.82 1492.60,242.60 1491.82,243.16 1490.82,243.49 1489.60,243.60 1489.60,256.40 1491.82,256.84 1492.60,257.40 1493.16,258.18 1493.49,259.18">
        <request index="0"  response="00000000000000000000" foes="00000000000011000000" cont="0"/>
        <request index="1"  response="01000000000100000000" foes="01111110000111000000" cont="0"/>
        <request index="2"  response="01000000000100000000" foes="01111110000111000000" cont="0"/>
        <request index="3"  response="01000001100100000000" foes="01110001101111000000" cont="1"/>